15
Coordinates from ORCA-job vdw_opt
  C   1.02301637051889      0.82809272745102     -0.20488723528045
  C   0.68619266467689     -0.17402034721047      0.87794228395125
  C   -0.57088930555463     -0.69057316091183      0.21207534392903
  C   0.67518265621700     -0.58146718548517     -0.64754113582547
  C   1.58995424941334     -1.26748279417975      0.35037379324244
  H   0.29363224110471      1.60240364514271     -0.40455880731197
  H   2.05835429591616      1.13139816500675     -0.29161761569206
  H   -0.89887242483260     -1.68608553571050      0.48196194531590
  H   -1.36154341335097      0.02536984131287      0.02835672020488
  H   1.34538601015477     -2.28525387515147      0.62545591861933
  H   2.64709717625563     -1.04499090387479      0.28490953913570
  Cl  0.24804190742168     -0.90065241218245      4.42739864403047
  C   0.68335688635689      0.58673263553791      3.70196988558443
  Cl  -0.50978902635278      1.81266001910852      3.66716587831120
  Cl  2.30937611205502      1.09018838114665      3.87663024178531
