17
Coordinates from ORCA-job vdw_opt
  C   -0.54554691272067      0.75044985444809     -0.53630946761300
  C   -1.33970501716526     -0.33414779698805      0.12466997422704
  C   -0.16033307822275     -0.72124341799577     -0.71364867242239
  C   1.13281700236838     -0.49156780838413      0.06704976500799
  C   0.73946875327209      1.00733256315073      0.24967862412483
  H   -0.99419144400268      1.42235790401370     -1.25340994354209
  H   -1.29930916708237     -0.45056529343688      1.20275665802490
  H   -2.30849928896441     -0.53135789810893     -0.31372611248799
  H   -0.26897873797001     -1.34722809422711     -1.58745075681508
  H   2.02634015999850     -0.60434547149070     -0.54369423204299
  H   1.24889248749951     -1.08622377158689      0.97502375129008
  H   0.60462525525319      1.36118819091026      1.27304710144043
  H   1.42848445767084      1.67492830383217     -0.26384033718282
  Cl  -1.93949966201104      2.31711167799225      2.87766329141485
  C   -2.12381678404575      2.83623199672613      1.25851611304680
  Cl  -3.66701417475815      2.64422417629443      0.54823943494285
  Cl  -1.19712404911942      4.18489608485067      0.76074420858658
