27
Coordinates from ORCA-job TS_opt
  F   2.64014586971146      2.97757824488233      3.69330899429197
  C   3.74118401482077      2.15315922357383      3.68417970662196
  F   4.70528358482499      2.85588230145793      2.98293923743901
  C   4.20914212249519      1.96179912803004      5.11438791622569
  C   5.39609109216649      1.00559652339033      5.29700905480920
  C   5.07774974877289     -0.49321323059180      5.51893607777174
  C   5.29983466567720     -1.44756845569446      4.33381408164651
  C   4.09668179024726     -1.62270069008572      3.39634662845507
  C   3.61127462030765     -0.32668286826717      2.92140793311033
  C   3.46700214597991      0.89668878132481      2.99522373335841
  N   2.31363968018930      1.46337289073216      1.25126593549064
  C   2.53162894984719      2.63175769820283      0.40279463647453
  N   2.32374604198295      0.31570996514818      0.76518375835173
  N   2.58808837089754     -0.79086883555617      1.02073635148173
  H   3.34841360307059      1.62044023444468      5.69149877374883
  H   4.46859602119005      2.95927208865756      5.47430383349441
  H   5.94048104820431      1.35856311970477      6.17393242784428
  H   6.08566298285500      1.12175418583323      4.45787172765577
  H   5.71885060353769     -0.84079822477570      6.33085184884024
  H   4.05246459116796     -0.60200130711777      5.88548908353331
  H   6.15756151970784     -1.10419732458176      3.75014177904626
  H   5.56206926564297     -2.43680116016875      4.71679669898520
  H   3.28181678895569     -2.12406973796985      3.92736062912005
  H   4.35881200945644     -2.26796371423123      2.55690653374205
  H   1.70481319654590      2.76083825623515     -0.29529418352771
  H   3.47278062635629      2.56084657065128     -0.14419766773993
  H   2.56775504538841      3.48595633677129      1.07097446972867
