4
Coordinates from ORCA-job CCl3_opt
  Cl  -1.00833193524025     -1.35019833203440     -0.06965153624937
  C   0.00082183131267      0.00053436018682      0.22703499114165
  Cl  1.67306162859572     -0.19826935405020     -0.08099064487135
  Cl  -0.66555152466814      1.54793332589778     -0.07649281002093
