30
Coordinates from ORCA-job cycloadduct_opt
  C   -6.08899358602941     -1.70377397709661      4.87396456005630
  N   -4.68560904676201     -1.88323886762246      4.57471008833732
  N   -4.31737901911021     -2.70585742086810      3.57244804734429
  N   -3.01406160519428     -2.66977014527670      3.50437994631693
  C   -2.53136991669685     -1.82385999265084      4.45697337996142
  C   -3.60249451273593     -1.30160160742653      5.15612969086137
  C   -3.70139858010683     -0.38235824007068      6.32487804087928
  C   -3.50903945007156     -1.06248234981240      7.69130388220522
  C   -2.09344561600024     -1.60911328259591      7.89635507341432
  C   -1.82283487363024     -3.02191726473129      7.33604030546421
  C   -0.43364934712225     -3.16186502437787      6.69280522379312
  C   -0.36717604521794     -2.91940631571350      5.17926775607854
  C   -1.05781747523654     -1.65206777376908      4.63680237616991
  H   -6.29599671824043     -1.95637934235444      5.91278677026289
  H   -6.63968990598690     -2.37242064656097      4.21958204842676
  H   -6.39607977294104     -0.67580325094586      4.68441092470959
  H   -2.94517590488415      0.39901481326474      6.22063324669322
  H   -4.66816231538182      0.12561475787117      6.30419847969056
  H   -4.24499162290028     -1.86167318882693      7.81938708302442
  H   -3.72445522505049     -0.31612084238104      8.45958600905330
  H   -1.39031306776846     -0.89816486371350      7.45567589525368
  H   -1.86521654641407     -1.61325963512475      8.96424439720499
  H   -1.91399001855897     -3.73767368219555      8.15543024765574
  H   -2.58868909692124     -3.30199118761596      6.61255713378471
  H   0.25633658196627     -2.48172445175990      7.20247102575317
  H   -0.04557018908623     -4.16691689618326      6.87366958982030
  H   -0.80416129882208     -3.77247873017089      4.65568772246248
  H   0.68628024585296     -2.88931671205183      4.89054488688595
  H   -0.63073037007233     -1.42765106728091      3.65739614179232
  H   -0.84998570087641     -0.79039281195812      5.27382002664362
