27
Coordinates from ORCA-job cycloadduct_opt
  C   -5.34242121122644      0.29396813723799      6.06224694424659
  N   -4.52950087441027     -0.67179358704964      5.35720657700385
  N   -5.11648101512926     -1.70616542182967      4.71629546583207
  N   -4.16400973154088     -2.40691339536206      4.15740517278131
  C   -2.96293309058894     -1.82739462328931      4.42861785610394
  C   -3.18386853891364     -0.70298489126163      5.19612107259405
  C   -2.20351856097172      0.21153831218132      5.83560780909294
  C   -1.72945776230495     -0.29972584616365      7.20863428402120
  C   -1.37286831794790     -1.78832337779285      7.24431898384173
  C   -0.32601350426386     -2.25462109134795      6.20929241498301
  C   -0.85891044610902     -3.12264027825495      5.06100081248455
  C   -1.66250533068675     -2.39578060718979      3.97225298969488
  H   -5.06569185566560      0.33218363241751      7.11490605112821
  H   -6.37452414479616     -0.02931642670400      5.96839498172622
  H   -5.22968190984972      1.28434439765169      5.62280093812125
  H   -1.34586316966742      0.29609673864185      5.16564167269213
  H   -2.61237029763097      1.21878891231137      5.93953579867813
  H   -0.86434381571754      0.29518952707542      7.51366101460399
  H   -2.51020518105886     -0.11304434829034      7.95121810629478
  H   -1.00708264781976     -2.00760470939175      8.24940541207800
  H   -2.28400160961374     -2.37811957922577      7.12386083619272
  H   0.20547928248370     -1.39160816190273      5.79483199346880
  H   0.43409373918089     -2.84091794246327      6.72902859762105
  H   -1.47215948952702     -3.92714973440153      5.47621496871060
  H   -0.00668761723123     -3.60341865557082      4.57343819437927
  H   -1.87640536279189     -3.09436564357862      3.16231885802665
  H   -1.04175753620101     -1.59972133644681      3.54869219359796
