24
Coordinates from ORCA-job alkyne
  C   3.73937876292328      1.46516096123354      2.48994061647151
  C   3.52545927719650      0.76572609067633      3.68208117284404
  C   4.47126053979150      0.71828036981779      4.69697451394337
  C   5.67188047688081      1.39657809761429      4.53603469374449
  C   5.89750381297312      2.10529988364296      3.36403926373666
  C   4.96149775212056      2.15505839552327      2.32599303523905
  C   5.36843268498162      2.93560796123972      1.09088962339906
  C   6.09447991788208      2.05689684607726      0.03685649649590
  C   5.13514087660425      1.01213567053452     -0.30708324883504
  C   4.08910347250902      0.42107224043912     -0.16714520261375
  C   2.79965765340389      0.19745706722834      0.47929548687969
  C   2.62981035225544      1.39020428343611      1.45843726860351
  H   2.58399094669713      0.24494751398195      3.81255411054754
  H   4.26698047609297      0.16637826959030      5.60469691978035
  H   6.42155566865672      1.38345734153375      5.31584300661419
  H   6.83068282024732      2.64303728196004      3.24310571924752
  H   4.50063001254654      3.38766648367344      0.60955264480178
  H   6.03185943571934      3.74905918160377      1.39308575466404
  H   6.38238743323851      2.66190997171478     -0.82488830674143
  H   7.00810342906998      1.63503481502318      0.46155799949350
  H   2.78783452143675     -0.74665848334889      1.02846162948152
  H   1.97253238568297      0.17307994431687     -0.23260640602471
  H   1.67431427436540      1.28992959428601      1.97814590215217
  H   2.58171301672426      2.30499021820155      0.86685730607503
