31
Coordinates from ORCA-job cycloadduct_opt
  C   -2.24410280798344     -1.37200252313561      3.17094339293756
  N   -3.12326593433823     -0.22237620293914      3.19312931892798
  N   -4.42135990088248     -0.38505616369212      2.87896095380786
  N   -4.98726842992354      0.78653420611711      2.96726524174372
  C   -2.84328177494665      1.07641671479620      3.49267907897654
  C   -4.06381483241296      1.71557302202638      3.34377123615822
  C   -4.49081065913638      3.13565185506726      3.52407582688853
  C   -3.62545199676250      4.19793762225165      2.81240669237239
  C   -2.50461599381841      4.72932546378792      3.66777448707021
  C   -2.71820152559242      5.91225414735668      4.38163210483373
  C   -1.75293006278134      6.44139566136317      5.22783024890546
  C   -0.53512712717593      5.78669384499822      5.36830379010922
  C   -0.30694842007771      4.61555304777425      4.65846449216015
  C   -1.27490013284029      4.06927202199126      3.81053943979102
  C   -0.95768676547680      2.77235505664911      3.11221724297345
  C   -1.46648364706261      1.52121491450633      3.86477851165789
  H   -1.79748215632525     -1.53607298689115      4.15022970998084
  H   -2.85672289065365     -2.22701160930588      2.90278730067887
  H   -1.45645674860315     -1.24338815872434      2.42966980208477
  H   -4.54453784454624      3.38549706327138      4.58750587923892
  H   -5.51049409967934      3.18365283657528      3.14089520191355
  H   -4.26986581892621      5.03718983389824      2.54782153474095
  H   -3.25016029914689      3.78740355307995      1.87359031391872
  H   -3.66404998554784      6.42743623948351      4.26414650885597
  H   -1.94724981495167      7.36007757499355      5.76498959803157
  H   0.23330735812104      6.18814104552989      6.01525360949222
  H   0.64692082187552      4.11054734016770      4.75643583671477
  H   -1.35006466081771      2.76146117299414      2.09460933206075
  H   0.12734030688442      2.69393195436166      3.03044879964324
  H   -0.77890911972859      0.69809407656807      3.66618076989129
  H   -1.40951503674269      1.71200737507929      4.94010374343953
