9
Coordinates from ORCA-job molecule_57_sp_orca
  O   -1.12083462000000      0.31039746000000      0.30198992000000
  C   -0.07152655000000     -0.53811229000000     -0.15359461000000
  C   1.28270675000000      0.14675472000000     -0.13835247000000
  H   -1.15351314000000      1.08103818000000     -0.27424240000000
  H   -0.07547389000000     -1.38844172000000      0.52723063000000
  H   -0.29363406000000     -0.91885408000000     -1.15658643000000
  H   1.29946555000000      0.99421031000000     -0.82721434000000
  H   1.51347086000000      0.51406112000000      0.86121857000000
  H   2.06857467000000     -0.54561562000000     -0.44513578000000
