33
Coordinates from ORCA-job cycloadduct_opt
  C   -1.36080297214047      5.58861951221023     -1.71941883001989
  N   -1.50610602475576      6.66480648646694     -0.76362264039510
  N   -0.96900432188119      7.86877162462138     -1.04194576911273
  N   -1.24635934888072      8.65559769506821     -0.03741064691324
  C   -2.13920764716164      6.67400555508473      0.44029756712143
  C   -1.96413293801782      7.96988421489201      0.89608191780040
  C   -2.44225390864630      8.67256003865382      2.13010143089284
  C   -2.15530689048429      8.02744674293295      3.49367105194197
  C   -0.68057111763686      7.84086796837324      3.86040279946541
  C   0.07746055325568      6.79567431586990      3.03770485022400
  C   -0.48060961364200      5.36401051093273      3.16071370262819
  C   -0.48449302836027      4.56676584665978      1.84045969158777
  C   -1.87710694128410      4.26106460988827      1.28034914653678
  C   -2.79599497259951      5.47911569723441      1.04426729174540
  H   -2.31418007588583      5.08306841537746     -1.86233599024369
  H   -0.61590704154102      4.86776665124719     -1.38549700279092
  H   -1.03877168931069      6.03432603594580     -2.65561668376012
  H   -1.99128010546001      9.66655724923795      2.10186421425293
  H   -3.52300198871890      8.82741935071957      2.05369380909878
  H   -2.61291140520048      8.67223798238657      4.24843688737162
  H   -2.68239915493138      7.07531747482285      3.57491857610090
  H   -0.16987120021672      8.80356840353900      3.76502288424158
  H   -0.62474275647069      7.56890173213549      4.91928287420015
  H   1.12454234985189      6.80120147863639      3.34979869932636
  H   0.08044876000648      7.10058154002011      1.99301110802155
  H   -1.49827990440475      5.39551795100085      3.55435142936457
  H   0.09722643642365      4.82318209937657      3.91186535057909
  H   0.09507224123110      5.11277890392768      1.09157516399513
  H   0.02814894941140      3.61199763023479      1.97472744385612
  H   -1.76181423666042      3.70850122613261      0.34538914081807
  H   -2.39984153612227      3.58488066395278      1.96220677332165
  H   -3.23466726778962      5.79708844904872      1.98795430297777
  H   -3.63730120197648      5.15951594336896      0.42088945576520
