26
Coordinates from ORCA-job cyclodecyne
  C   -4.30614113565241      2.07276001724111      1.23489346258923
  C   -4.37497237342095      3.32713127840056      2.12083066433137
  C   -4.50881600829068      3.04676005117303      3.62175030766662
  C   -4.03508544559770      4.18111202199796      4.53279006487336
  C   -2.55882394119828      4.60141969735007      4.30159082848805
  C   -1.74765620262120      3.45939409512668      3.89383125155925
  C   -1.31030387419283      2.43600762360640      3.42336232054523
  C   -1.02555841651586      1.16476165735254      2.76800958702981
  C   -2.30498375125714      0.59019130148434      2.12764303428766
  C   -2.90636061774248      1.47134476987996      1.00869309187774
  H   -4.69995177200082      2.33485652550927      0.24976496080979
  H   -4.97772686964092      1.30236637435660      1.62849743486722
  H   -5.22344003722443      3.94065348431306      1.80523010448788
  H   -3.48285022084916      3.92565618373675      1.92800283722295
  H   -5.55342734402452      2.82100917232342      3.85315007981990
  H   -3.94172168429178      2.15409528565199      3.87914114692863
  H   -4.66480695640421      5.06535992178774      4.40592609653939
  H   -4.15037217387958      3.85970500178888      5.56995988952409
  H   -2.16426672675547      5.07238112599933      5.20359769214286
  H   -2.50703548032936      5.35848227276887      3.51560688912881
  H   -0.26120945201510      1.29972447599217      1.99765921096015
  H   -0.62017655700867      0.44884780840209      3.48702750918285
  H   -3.04143038489333      0.41705512346656      2.91356606024110
  H   -2.05570148891256     -0.39313217067002      1.72310434925352
  H   -2.21553259920662      2.28923290546261      0.78478268963527
  H   -2.95816848607387      0.86988399549800      0.09872843600723
