14
Coordinates from ORCA-job adduct_opt
  C   1.59954975774160     -0.21275975493091      0.66272045081531
  C   0.95727752313390      0.92741872529213     -0.06493606604936
  C   -0.13639895628688     -0.08023169625915     -0.52889023802882
  C   -1.58201091397656      0.28822523135191     -0.28226213018334
  Cl  -2.01404476173214      1.69466554514601     -1.29920223029143
  Cl  -2.62639531745301     -1.09600062508505     -0.72101817377335
  Cl  -1.88823397491989      0.70933603982354      1.42719747938046
  C   0.49457233874177     -1.18131445625541      0.37468261887371
  H   2.51292065708964     -0.29443412050525      1.23109887580754
  H   1.52643687369362      1.38979703010389     -0.87499797989259
  H   0.57496934272606      1.72969310235784      0.57318468660648
  H   -0.05479749801513     -0.31893355184507     -1.58771407298267
  H   -0.12318773046985     -1.45092880812330      1.23649476430461
  H   0.75936265972689     -2.10451266107119     -0.14633798458655
