30
Coordinates from ORCA-job cycloadduct_opt
  O   0.22396465622758     -1.25694589689019      6.90044306966914
  S   -0.41361096383215     -0.48423807689051      5.86149401179215
  N   0.70071546462356      0.61200397367725      5.35665184048217
  C   2.12394186183957      0.30181459866213      5.51398153066714
  C   2.58380916559368     -0.78675310407581      4.60047133019714
  C   2.61984998398218     -0.87443315177262      3.21934825371546
  N   2.99146702691670     -2.13622671701764      2.88018533151038
  N   3.19668445520003     -2.83273203625011      3.96906003002711
  N   2.94711604596185     -2.02737203083777      5.01701600145527
  C   3.12720964904372     -2.53549134682492      6.36639391407378
  C   2.35808809995734      0.14194795842237      2.16564944150544
  S   0.70862904432688      0.92996029582601      2.15005556126292
  C   0.91693990477258      2.20459547783432      3.42705207485259
  C   0.29139855996540      1.88782944954306      4.78299321158193
  C   -0.71462917952996     -1.58620928318827      4.50435915795782
  O   -1.63792694801655      0.22747020043083      6.11077645356969
  H   2.66791328286149      1.22293816405262      5.30490036371452
  H   2.32941639666263      0.03830824429335      6.55014531504213
  H   3.99137404091833     -2.06529814926843      6.83347835491807
  H   3.30215257528165     -3.60269287303755      6.27483916641020
  H   2.23203932898953     -2.34842916358435      6.95297794356688
  H   2.45044307303948     -0.35344328440064      1.19987779675537
  H   3.09475266277738      0.94673295930995      2.18950293790313
  H   1.98413663969020      2.41172232509337      3.51599649179279
  H   0.45433205395208      3.11783662650540      3.05001016270574
  H   -0.79170237209187      1.87038657064993      4.69970753754477
  H   0.54298290105897      2.69915895251208      5.47620995956733
  H   -1.07101082835642     -1.00877998935280      3.65641502691880
  H   0.20438493518729     -2.10723624875662      4.24959690814987
  H   -1.47246151700319     -2.28958444466445      4.84448082069019
