30
Coordinates from ORCA-job TS_opt
  O   4.93485593419199      2.69267947452890     -0.15817356718513
  S   3.75897980351530      3.49083327023856      0.06226903262560
  N   2.52659801134789      2.48522944627741      0.43054021336857
  C   2.52258965824622      1.09147486389605     -0.01902602323944
  C   2.20886260060565      0.19831020060441      1.10183914100684
  C   1.79673022686184     -0.03204798578733      2.24379570570507
  N   2.13985755589170     -2.21331271961127      2.39446669990609
  C   1.33719393832061     -3.24421608370018      3.04235575582137
  N   2.46791291889237     -2.34177563201412      1.19443391872330
  N   2.73180256817175     -1.69109294993082      0.26039526574645
  C   1.30851644298312      0.31039275049736      3.57508219062011
  S   0.37846824721127      1.88702669266359      3.58766089356588
  C   1.50886229410631      2.99288294233868      2.69041743443898
  C   1.36630485156558      3.00524683772329      1.15161359692189
  C   3.32964372463533      4.22205359102175     -1.50231296657392
  O   3.73722845932133      4.54813520954851      1.03930936627365
  H   1.78445084778382      0.94578280369504     -0.81588997730128
  H   3.50381004770480      0.86596086596018     -0.42908314857163
  H   1.89051156810755     -4.18007132014434      3.12097242277983
  H   0.39532458522758     -3.41786341249337      2.51864754375031
  H   1.12758766341201     -2.88745903528549      4.04726287510982
  H   0.60190098551402     -0.42288711274264      3.96336077267451
  H   2.14177594689559      0.37257497120814      4.27737410082704
  H   2.53644174570962      2.76815568499329      2.96934859005460
  H   1.28433097082823      3.98352617932315      3.08406005429210
  H   1.18714695890345      4.02972320727917      0.82686980771864
  H   0.50236215571780      2.41201182058254      0.85272277656956
  H   4.12096264234782      4.92211248406705     -1.76218352207236
  H   3.26233023678361      3.43523516381164     -2.24998450269488
  H   2.38286640919579      4.74750779145082     -1.40154445086157
