31
Coordinates from ORCA-job TS_opt
  C   4.07478774837366      0.07037183379874      7.41012939909367
  N   3.10967265135407      1.16164224305987      7.49493625959526
  N   2.53545873788762      1.37965830872078      8.58531412862238
  N   1.52833632663694      1.76247397176703      9.02855801665067
  C   1.27872467284752      1.38889130209379      6.28078199306094
  C   0.43576240008548      1.77499193974943      7.10539443079167
  C   -0.90408382412071      2.19619082766133      7.40186990427360
  C   -1.22494590703289      2.98641322544131      8.51026574424514
  C   -2.52702924477154      3.42359604733654      8.71256171602613
  C   -3.52672655303814      3.06648619059211      7.81429768797300
  C   -3.21684717659712      2.26964237948797      6.71665429560554
  C   -1.91705150478667      1.82481546760331      6.48763422830874
  C   -1.59613195945679      0.94523872793004      5.31071855858222
  C   -0.69774467404727      1.57846938909976      4.21133101373560
  C   0.60392025208397      0.80680072416671      3.95434223637871
  C   1.75637745023592      1.17675587383737      4.90923347133711
  H   4.95737479380485      0.27741926541060      8.01568276403212
  H   4.38179990466051      0.00917188768428      6.36966587083430
  H   3.63908135449542     -0.88378678448781      7.71318329877403
  H   -0.44280689504791      3.25057023587406      9.20630010432253
  H   -2.76031821503689      4.03874217470541      9.57134854135127
  H   -4.54384256952133      3.40184594017822      7.96828658395748
  H   -3.99850660990696      1.98490700564237      6.02272442846903
  H   -1.10240354543733      0.04346081162409      5.68327285418164
  H   -2.53573685712560      0.61909902501265      4.86252836008748
  H   -0.46538374912428      2.61363586658523      4.47068741100730
  H   -1.26745156092928      1.61870513488591      3.28167158674453
  H   0.39960922003711     -0.26387584792807      4.03301891403391
  H   0.95043121922963      0.98139862280564      2.93324075491759
  H   2.22242814701687      2.10797272092503      4.57210799502237
  H   2.53327596723116      0.41190548873626      4.85837744798388
