31
Coordinates from ORCA-job TS_opt
  C   1.68875234402210      7.52164934712822      0.95217757223445
  N   2.51338986798985      6.31341132177459      0.94454355883057
  N   2.95278084399775      5.90408906467646     -0.14741872873035
  N   3.17768316127389      4.97985316455051     -0.81196102627910
  C   1.64327137892138      4.28188825191879      1.45627026419810
  C   2.00754304989596      3.56254037440313      0.52023233508539
  C   2.03500928795740      2.19550007904902     -0.01481700315101
  C   1.47688970387855      1.25815614655922      1.07410757652453
  C   -0.03669173717266      1.34390034342505      1.32562394584954
  C   -0.70378021846572      2.71904098784457      1.54274857213713
  C   -0.26932897369525      3.54880604551296      2.72848841584350
  C   0.86470575655010      4.39212254128867      2.65059034610725
  C   1.21358974383781      5.20288024733972      3.73334566385327
  C   0.46334093425255      5.17681048084330      4.90242432063751
  C   -0.64682511479590      4.34412133545256      4.99309753979331
  C   -1.00641545865082      3.54580697695672      3.91011224847595
  H   2.29992962667037      8.41449614868352      0.81759067461472
  H   1.21943483895213      7.56195330173136      1.93103289760144
  H   0.91356108072306      7.48647022542002      0.18511498286971
  H   3.05208986577978      1.90257834109327     -0.28220559068203
  H   1.44478976460531      2.13020677104286     -0.93389509261168
  H   2.01884382321303      1.46652424730707      1.99888673645122
  H   1.70471431892258      0.22243805486937      0.80589460450747
  H   -0.55017690195222      0.88695226424972      0.47386424173032
  H   -0.26312738796784      0.71114725619600      2.18870854615993
  H   -0.58451440152310      3.31749906233429      0.63744540285651
  H   -1.77445339446316      2.52775165046912      1.64897531018611
  H   2.09083988912114      5.83078519433335      3.65203474843409
  H   0.74539299874218      5.80172197333866      5.73931928851493
  H   -1.23641584566429      4.32020853402379      5.89988081581854
  H   -1.88243284495595      2.91185026618404      3.98093683213864
