17
Coordinates from ORCA-job cycloheptyne
  C   1.97280457567582      0.18384317517926      0.26949796453717
  C   1.04608029460838     -1.04362579577096      0.07696672182999
  C   -0.25035253247209     -0.78895358052780     -0.73368734047235
  C   -1.46631837319159     -0.19758923286115      0.02427708409033
  C   -1.46833956061037      1.34271322836273      0.19780132972230
  C   -0.08675035600132      1.67482623185452      0.54728755092931
  C   1.06154933162315      1.28812431767824      0.57171719121964
  H   2.52701734730692      0.39270540333166     -0.64909159263570
  H   2.70908641630202     -0.00720270856188      1.05111257860928
  H   0.76791493790441     -1.42302527627706      1.06343686308566
  H   1.61979731333294     -1.83396821070044     -0.41441800439713
  H   -0.02293329395264     -0.16759238595870     -1.60575333286774
  H   -0.56803123156071     -1.75689144540000     -1.12757607012651
  H   -2.38211783112017     -0.48600675838878     -0.49854668261127
  H   -1.51185855935189     -0.65574209640531      1.01550320157066
  H   -2.19846583359579      1.64554611478797      0.94929357642902
  H   -1.74908264489705      1.83292901965770     -0.73791103891266
