24
Coordinates from ORCA-job cycloadduct_opt
  C   3.29256221074493     -0.33243142569843      0.08084198169383
  N   2.12417303896534      0.48892195280148     -0.14722991194873
  N   2.26452840281793      1.82505419748145     -0.27098594645745
  N   1.07153135572830      2.32346567265972     -0.46102251399007
  C   0.82149281721767      0.12227178323995     -0.25894995826879
  C   0.15756174723881      1.31564929755323     -0.46310795510008
  C   -1.29944636494056      1.55407062052841     -0.66626980065291
  C   -2.19814470546474      0.80984110059468      0.32368331038680
  C   -2.18221625068051     -0.71712832395370      0.20200318800607
  C   -0.92388575928433     -1.42723181929805      0.70988439433583
  C   0.31973210856872     -1.27814110462185     -0.17300933351942
  H   3.41875877977136     -1.05532639996179     -0.72379594855231
  H   4.14753436291387      0.33603916803584      0.10665908153823
  H   3.21420021243187     -0.85894928109074      1.03116617722052
  H   -1.58441123416874      1.26770110823661     -1.68491687943702
  H   -1.46804319566333      2.62867492156934     -0.58818213544671
  H   -1.92464831219694      1.09523038596029      1.34365043737765
  H   -3.22441621152186      1.15148918558719      0.16962681919675
  H   -2.35804491342299     -0.99844143134157     -0.84254277061170
  H   -3.03176847754012     -1.10898789706478      0.76650770314762
  H   -0.69058500004815     -1.07459413834248      1.71845634322989
  H   -1.14212926981350     -2.49462526235676      0.79403463920529
  H   1.10910547144844     -1.92652395151313      0.21200784055180
  H   0.08656918689850     -1.64602835900494     -1.17832876190509
