24
Coordinates from ORCA-job TS_opt
  C   3.77059666614982     -0.11486298312580      0.00287762856247
  N   2.62885316883713      0.33058812825893     -0.79346686350783
  N   2.42685251807573      1.55431714286533     -0.90447726364286
  N   1.65382469208426      2.41372904980434     -0.98188465761083
  C   0.43227715034482     -0.06080853949756     -0.21664507557956
  C   -0.09920583084865      1.03904256100074     -0.36665104486899
  C   -1.39977923435903      1.71839300884715     -0.33481101958926
  C   -2.38829812422388      0.78647130067346      0.39605420490211
  C   -2.31940635413526     -0.70326486268720     -0.01079473087449
  C   -1.23584885420452     -1.56367631597275      0.67830836980942
  C   0.17570472548786     -1.47709611147397      0.05842242070934
  H   3.68563022206024     -1.19490724123904      0.08182503909517
  H   4.71383522408654      0.12350556952047     -0.48969714494289
  H   3.76086506149027      0.32069739726310      1.00392662223496
  H   -1.73847966419540      1.89981185636167     -1.35906980631462
  H   -1.35341892814022      2.69321095389396      0.15360448043672
  H   -2.20707655976344      0.86002851603429      1.47183260476702
  H   -3.40335785044799      1.15494232703764      0.22460391824158
  H   -2.21782112209401     -0.78409385240676     -1.09803748662146
  H   -3.28539197069817     -1.14900834362824      0.23645133854132
  H   -1.17396650183557     -1.26576033984528      1.72836902547205
  H   -1.55203815448724     -2.61028434634648      0.66798825253271
  H   0.91198227866003     -1.92712565479997      0.72798477188183
  H   0.21366744215670     -2.04381922053803     -0.87650358363392
